Structure90
                    3D
 Schrodinger Suite 2023-4.
 53 56  0  0  1  0            999 V2000
   31.9726   18.5207   49.9756 C   0  0  0  0  0  0
   32.8233   18.6201   48.8619 C   0  0  0  0  0  0
   33.9881   17.6839   48.7440 C   0  0  0  0  0  0
   35.1224   18.1734   49.5396 N   0  3  0  0  0  0
   32.6113   19.6078   47.8767 C   0  0  0  0  0  0
   31.5520   20.5287   48.0035 C   0  0  0  0  0  0
   31.3511   21.5788   46.9817 C   0  0  0  0  0  0
   30.4060   22.5092   47.1395 N   0  0  0  0  0  0
   30.5046   23.3179   46.0688 N   0  0  0  0  0  0
   31.5049   22.8994   45.2311 C   0  0  0  0  0  0
   31.9226   23.5411   43.9690 C   0  0  0  0  0  0
   31.6732   24.8629   43.8639 N   0  0  0  0  0  0
   31.9672   25.7832   42.8065 C   0  0  0  0  0  0
   31.6539   27.1437   43.0127 C   0  0  0  0  0  0
   31.9056   28.1300   42.0330 C   0  0  0  0  0  0
   31.5265   29.5545   42.3197 C   0  0  0  0  0  0
   30.3240   30.1836   41.6574 C   0  0  0  0  0  0
   30.3033   29.9165   43.1393 C   0  0  0  0  0  0
   32.5132   27.7512   40.8082 C   0  0  0  0  0  0
   32.8281   28.7765   39.7181 C   0  0  0  0  0  0
   33.5579   29.7749   40.2193 F   0  0  0  0  0  0
   33.5217   28.2312   38.7165 F   0  0  0  0  0  0
   31.6989   29.2718   39.2105 F   0  0  0  0  0  0
   32.8588   26.3982   40.6077 C   0  0  0  0  0  0
   32.6087   25.4330   41.5983 C   0  0  0  0  0  0
   32.5360   22.8748   43.1395 O   0  0  0  0  0  0
   32.0696   21.7751   45.7609 C   0  0  0  0  0  0
   30.7228   20.4241   49.1450 C   0  0  0  0  0  0
   30.9199   19.4345   50.1231 C   0  0  0  0  0  0
   30.0030   19.3447   51.3241 C   0  0  0  0  0  0
   29.1226   18.2510   51.2252 O   0  0  0  0  0  0
   32.1287   17.7564   50.7238 H   0  0  0  0  0  0
   33.7182   16.6724   49.0505 H   0  0  0  0  0  0
   34.3217   17.6328   47.7068 H   0  0  0  0  0  0
   35.9220   17.6204   49.2239 H   0  0  0  0  0  0
   35.2957   19.1437   49.3284 H   0  0  0  0  0  0
   33.2786   19.6663   47.0289 H   0  0  0  0  0  0
   29.8757   24.0939   45.9230 H   0  0  0  0  0  0
   31.2302   25.2754   44.6698 H   0  0  0  0  0  0
   31.1895   27.4374   43.9394 H   0  0  0  0  0  0
   32.4119   30.1710   42.4637 H   0  0  0  0  0  0
   29.6950   29.5535   41.0314 H   0  0  0  0  0  0
   30.4042   31.2219   41.3436 H   0  0  0  0  0  0
   30.3676   30.7859   43.7899 H   0  0  0  0  0  0
   29.6371   29.1270   43.4783 H   0  0  0  0  0  0
   33.3413   26.0845   39.6945 H   0  0  0  0  0  0
   32.9562   24.4328   41.4146 H   0  0  0  0  0  0
   32.8840   21.1999   45.3466 H   0  0  0  0  0  0
   29.9226   21.1331   49.3060 H   0  0  0  0  0  0
   30.6016   19.2389   52.2291 H   0  0  0  0  0  0
   29.4226   20.2618   51.4338 H   0  0  0  0  0  0
   28.5149   18.4322   50.5098 H   0  0  0  0  0  0
   34.9626   18.0438   50.5268 H   0  0  0  0  0  0
  1  2  2  0  0  0
  1 29  1  0  0  0
  1 32  1  0  0  0
  2  3  1  0  0  0
  2  5  1  0  0  0
  3  4  1  0  0  0
  3 33  1  0  0  0
  3 34  1  0  0  0
  4 35  1  0  0  0
  4 36  1  0  0  0
  4 53  1  0  0  0
  5  6  2  0  0  0
  5 37  1  0  0  0
  6  7  1  0  0  0
  6 28  1  0  0  0
  7  8  2  0  0  0
  7 27  1  0  0  0
  8  9  1  0  0  0
  9 10  1  0  0  0
  9 38  1  0  0  0
 10 11  1  0  0  0
 10 27  2  0  0  0
 11 12  1  0  0  0
 11 26  2  0  0  0
 12 13  1  0  0  0
 12 39  1  0  0  0
 13 14  2  0  0  0
 13 25  1  0  0  0
 14 15  1  0  0  0
 14 40  1  0  0  0
 15 16  1  0  0  0
 15 19  2  0  0  0
 16 17  1  0  0  0
 16 18  1  0  0  0
 16 41  1  0  0  0
 17 18  1  0  0  0
 17 42  1  0  0  0
 17 43  1  0  0  0
 18 44  1  0  0  0
 18 45  1  0  0  0
 19 20  1  0  0  0
 19 24  1  0  0  0
 20 21  1  0  0  0
 20 22  1  0  0  0
 20 23  1  0  0  0
 24 25  2  0  0  0
 24 46  1  0  0  0
 25 47  1  0  0  0
 27 48  1  0  0  0
 28 29  2  0  0  0
 28 49  1  0  0  0
 29 30  1  0  0  0
 30 31  1  0  0  0
 30 50  1  0  0  0
 30 51  1  0  0  0
 31 52  1  0  0  0
M  CHG  1   4   1
M  END
> <i_epik_Tot_Q>
1

> <i_f3d_flags>
0

> <b_m_subgroup_collapsed>
0

> <r_epik_Ionization_Penalty>
0.0287

> <r_epik_State_Penalty>
0.4382

> <r_glide_XP_GScore>
-8.96397

> <r_i_docking_score>
-8.52577

> <r_i_glide_emodel>
-64.9638

> <r_i_glide_gscore>
-8.96397

> <r_lp_tautomer_probability>
0.5

> <s_m_Source_File>
glide-dock_XP_sar-test_pv.maegz

> <s_m_Source_Path>
/home/user603/glide-dock_XP_sar-test

> <s_m_entry_id>
98

> <s_m_job_name>
glide-dock_XP_sar-test

> <s_m_subgroup_title>
glide-dock_XP_sar-test_pv

> <s_m_subgroupid>
glide-dock_XP_sar-test_pv

$$$$
